
This summary file was generated by TurbSim (v1.06.00, 21-Sep-2012) on 16-Feb-2024 at 15:50:09.


Runtime Options:

   2318573  Random seed #1
    RANLUX  Type of random number generator
         F  Output binary HH turbulence parameters?
         F  Output formatted turbulence parameters?
         F  Output AeroDyn HH files?
         T  Output AeroDyn FF files?
         T  Output BLADED FF files?
         F  Output tower data?
         F  Output formatted FF files?
         F  Output coherent turbulence time step file?
         T  Clockwise rotation when looking downwind?
 0 -  NONE  IEC turbulence models scaled to exact specified standard deviation


Turbine/Model Specifications:

        13  Vertical grid-point matrix dimension
        13  Horizontal grid-point matrix dimension
     0.050  Time step [seconds]
    10.000  Analysis time [seconds]
    10.000  Usable output time [seconds]
    90.000  Hub height [m]
   155.000  Grid height [m]
   155.000  Grid width [m]
     0.000  Vertical flow angle [degrees]
     0.000  Horizontal flow angle [degrees]


Meteorological Boundary Conditions:

    IECKAI  IEC Kaimal spectral model
         1  IEC standard: IEC 61400-1 Ed. 3: 2005
         A  IEC turbulence characteristic
       NTM  IEC Normal Turbulence Model
       N/A  IEC Extreme Turbulence Model (ETM) "c" parameter [m/s]
       IEC  Wind profile type
    90.000  Reference height [m]
    11.400  Reference wind speed [m/s]
       N/A  Jet height [m]
     0.200  Power law exponent
     0.030  Surface roughness length [m]


You have requested that the following file(s) be generated:

   TurbSim.bts (AeroDyn/TurbSim full-field wind file)
   TurbSim.wnd (AeroDyn/BLADED full-field wnd file)


Turbulence Simulation Scaling Parameter Summary:

   Turbulence model used                            =  IEC Kaimal
   Turbulence characteristic                        =  A
   IEC turbulence type                              =  Normal Turbulence Model
   IEC standard                                     =  IEC 61400-1 Ed. 3: 2005
   Mean wind speed at hub height                    =   11.400 m/s
   Expected value of turbulence intensity at 15 m/s =   16.000%
   Characteristic value of standard deviation       =    2.264 m/s
   Turbulence scale                                 =   42.000 m
   u-component integral scale                       =  340.200 m
   Coherency scale                                  =  340.200 m
   Characteristic value of hub turbulence intensity =   19.860%
   Gradient Richardson number                       =    0.000

   Wind profile type                                =  Power law on rotor disk, logarithmic elsewhere
   Power law exponent                               =    0.200
   Mean shear across rotor disk                     =    0.034 (m/s)/m
   Assumed rotor diameter                           =  155.000 m
   Surface roughness length                         =    0.030 m

   Number of time steps in the FFT                  =      476
   Number of time steps output                      =      472


Mean Flow Angles:

   Vertical   =   0.0 degrees
   Horizontal =   0.0 degrees

Mean Wind Speed Profile:

   Height    Wind Speed   Horizontal Angle  U-comp (X)   V-comp (Y)   W-comp (Z)
     (m)        (m/s)         (degrees)       (m/s)        (m/s)        (m/s)   
   ------    ----------   ----------------  ----------   ----------   ----------
    167.5       12.91            0.00         12.91         0.00         0.00
    154.6       12.70            0.00         12.70         0.00         0.00
    141.7       12.48            0.00         12.48         0.00         0.00
    128.8       12.25            0.00         12.25         0.00         0.00
    115.8       11.99            0.00         11.99         0.00         0.00
    102.9       11.71            0.00         11.71         0.00         0.00
     90.0       11.40            0.00         11.40         0.00         0.00
     77.1       11.05            0.00         11.05         0.00         0.00
     64.2       10.65            0.00         10.65         0.00         0.00
     51.2       10.19            0.00         10.19         0.00         0.00
     38.3        9.61            0.00          9.61         0.00         0.00
     25.4        8.85            0.00          8.85         0.00         0.00
     12.5        7.68            0.00          7.68         0.00         0.00


Harvested Random Seeds after Generation of the Random Numbers:

      1121039 K1
            0 K2


Hub-Height Simulated Turbulence Statistical Summary:

   Type of Wind        Min (m/s)   Mean (m/s)    Max (m/s)  Sigma (m/s)       TI (%)
   ----------------    ---------   ----------    ---------  -----------       ------
   Longitudinal (u)         7.13        11.40        14.23        1.404       12.320
   Lateral (v)             -2.78         0.00         4.77        1.333       11.690
   Vertical (w)            -2.45         0.00         2.92        1.008        8.841
   U component              7.13        11.40        14.23        1.404       12.320
   V component             -2.78         0.00         4.77        1.333       11.690
   W component             -2.45         0.00         2.92        1.008        8.841
   Horizontal (U&V)         7.22        11.48        14.30        1.409       12.277
   Total                    7.32        11.52        14.40        1.412       12.255

                       Min Reynolds     Mean Reynolds    Max Reynolds    Correlation
   Product             Stress (m/s)^2   Stress (m/s)^2   Stress (m/s)^2  Coefficient
   ----------------    --------------   --------------   --------------  -----------
   u'w'                     -5.184            -0.408             4.196        -0.289
   u'v'                     -5.508            -0.498             4.868        -0.266
   v'w'                     -4.161            -0.010             4.135        -0.008


   Friction Velocity (Ustar)  =      0.639 m/s
   Maximum Instantaneous TKE  =     11.565 (m/s)^2
   Maximum Instantaneous CTKE =      3.803 (m/s)^2


Grid Point Variance Summary:

   Y-coord  -77.50  -64.58  -51.67  -38.75  -25.83  -12.92    0.00   12.92   25.83   38.75   51.67   64.58   77.50

   Height   Standard deviation at grid points for the u component:
   167.50    0.963   1.213   1.393   1.249   1.328   1.356   1.260   1.214   1.628   1.119   1.186   1.204   1.020
   154.58    1.489   1.855   1.135   1.041   1.090   1.356   1.217   1.400   1.458   1.003   0.862   1.191   1.243
   141.67    1.647   1.844   1.147   1.690   1.704   1.236   1.029   1.183   1.157   1.128   1.403   1.436   1.322
   128.75    1.388   1.631   1.076   1.378   1.407   1.456   1.431   1.242   1.302   1.354   1.087   1.049   1.012
   115.83    0.927   1.237   1.580   1.500   1.091   1.158   1.497   0.901   1.132   1.334   1.245   1.308   1.108
   102.92    1.321   0.874   1.489   1.389   1.181   1.604   1.276   1.471   1.202   1.043   1.355   1.081   1.160
    90.00    1.191   1.336   1.360   0.934   0.952   1.124   1.404   1.304   1.061   1.085   1.087   1.166   1.086
    77.08    1.073   1.219   0.950   1.152   1.376   1.180   1.256   1.261   1.316   0.940   1.091   1.040   1.125
    64.17    1.029   1.085   1.078   1.166   0.868   1.100   1.312   1.150   1.276   1.445   1.772   1.426   1.083
    51.25    1.036   1.375   1.190   1.243   1.244   1.290   1.381   1.176   1.042   1.087   1.451   1.645   1.825
    38.33    1.020   1.305   1.331   1.115   1.052   0.907   1.337   1.083   1.193   1.473   1.512   1.439   1.658
    25.42    1.309   0.889   1.279   1.582   1.660   1.557   1.586   0.930   1.307   1.175   1.149   1.226   1.395
    12.50    1.279   1.436   1.136   1.194   1.282   1.286   1.448   1.303   1.233   1.089   1.362   1.140   1.274

   Height   Standard deviation at grid points for the v component:
   167.50    1.333   1.333   1.333   1.333   1.333   1.333   1.333   1.333   1.333   1.333   1.333   1.333   1.333
   154.58    1.333   1.333   1.333   1.333   1.333   1.333   1.333   1.333   1.333   1.333   1.333   1.333   1.333
   141.67    1.333   1.333   1.333   1.333   1.333   1.333   1.333   1.333   1.333   1.333   1.333   1.333   1.333
   128.75    1.333   1.333   1.333   1.333   1.333   1.333   1.333   1.333   1.333   1.333   1.333   1.333   1.333
   115.83    1.333   1.333   1.333   1.333   1.333   1.333   1.333   1.333   1.333   1.333   1.333   1.333   1.333
   102.92    1.333   1.333   1.333   1.333   1.333   1.333   1.333   1.333   1.333   1.333   1.333   1.333   1.333
    90.00    1.333   1.333   1.333   1.333   1.333   1.333   1.333   1.333   1.333   1.333   1.333   1.333   1.333
    77.08    1.333   1.333   1.333   1.333   1.333   1.333   1.333   1.333   1.333   1.333   1.333   1.333   1.333
    64.17    1.333   1.333   1.333   1.333   1.333   1.333   1.333   1.333   1.333   1.333   1.333   1.333   1.333
    51.25    1.333   1.333   1.333   1.333   1.333   1.333   1.333   1.333   1.333   1.333   1.333   1.333   1.333
    38.33    1.333   1.333   1.333   1.333   1.333   1.333   1.333   1.333   1.333   1.333   1.333   1.333   1.333
    25.42    1.333   1.333   1.333   1.333   1.333   1.333   1.333   1.333   1.333   1.333   1.333   1.333   1.333
    12.50    1.333   1.333   1.333   1.333   1.333   1.333   1.333   1.333   1.333   1.333   1.333   1.333   1.333

   Height   Standard deviation at grid points for the w component:
   167.50    1.008   1.008   1.008   1.008   1.008   1.008   1.008   1.008   1.008   1.008   1.008   1.008   1.008
   154.58    1.008   1.008   1.008   1.008   1.008   1.008   1.008   1.008   1.008   1.008   1.008   1.008   1.008
   141.67    1.008   1.008   1.008   1.008   1.008   1.008   1.008   1.008   1.008   1.008   1.008   1.008   1.008
   128.75    1.008   1.008   1.008   1.008   1.008   1.008   1.008   1.008   1.008   1.008   1.008   1.008   1.008
   115.83    1.008   1.008   1.008   1.008   1.008   1.008   1.008   1.008   1.008   1.008   1.008   1.008   1.008
   102.92    1.008   1.008   1.008   1.008   1.008   1.008   1.008   1.008   1.008   1.008   1.008   1.008   1.008
    90.00    1.008   1.008   1.008   1.008   1.008   1.008   1.008   1.008   1.008   1.008   1.008   1.008   1.008
    77.08    1.008   1.008   1.008   1.008   1.008   1.008   1.008   1.008   1.008   1.008   1.008   1.008   1.008
    64.17    1.008   1.008   1.008   1.008   1.008   1.008   1.008   1.008   1.008   1.008   1.008   1.008   1.008
    51.25    1.008   1.008   1.008   1.008   1.008   1.008   1.008   1.008   1.008   1.008   1.008   1.008   1.008
    38.33    1.008   1.008   1.008   1.008   1.008   1.008   1.008   1.008   1.008   1.008   1.008   1.008   1.008
    25.42    1.008   1.008   1.008   1.008   1.008   1.008   1.008   1.008   1.008   1.008   1.008   1.008   1.008
    12.50    1.008   1.008   1.008   1.008   1.008   1.008   1.008   1.008   1.008   1.008   1.008   1.008   1.008

   Mean standard deviation across all grid points:
      u component:    1.257 m/s
      v component:    1.333 m/s
      w component:    1.008 m/s


U-component (X) statistics from the hub grid point:

   Mean =  11.4000 m/s
   TI   =  12.3200 %


Normalizing Parameters for Binary Data (approximate statistics):

   UBar  =  11.4000 m/s
   TI(u) =  12.3200 %
   TI(v) =  11.6904 %
   TI(w) =   8.8410 %

   Height Offset =   0.0000 m
   Grid Base     =  12.5000 m

Nyquist frequency of turbulent wind field =        10.000 Hz


Processing complete.  6.25000E-02 CPU seconds used.
